<?xml version="1.0" encoding="UTF-8"?>

<!-- generated on 2025-02-28 14:35:05 by Eclipse SUMO GUI Version 1.21.0
-->

<sumoConfiguration xmlns:xsi="http://www.w3.org/2001/XMLSchema-instance" xsi:noNamespaceSchemaLocation="http://sumo.dlr.de/xsd/sumoConfiguration.xsd">

    <input>
        <net-file value="single-intersection.net.xml"/>
    </input>

</sumoConfiguration>
