<?xml version="1.0" encoding="UTF-8"?>

<!-- generated on 2025-05-01 00:45:48 by Eclipse SUMO netconvert Version 1.21.0
<netconvertConfiguration xmlns:xsi="http://www.w3.org/2001/XMLSchema-instance" xsi:noNamespaceSchemaLocation="http://sumo.dlr.de/xsd/netconvertConfiguration.xsd">

    <input>
        <osm-files value="map (4).osm"/>
    </input>

    <output>
        <output-file value="map.net.xml"/>
    </output>

    <projection>
        <proj.utm value="true"/>
    </projection>

</netconvertConfiguration>
-->

<net version="1.20" junctionCornerDetail="5" limitTurnSpeed="5.50" xmlns:xsi="http://www.w3.org/2001/XMLSchema-instance" xsi:noNamespaceSchemaLocation="http://sumo.dlr.de/xsd/net_file.xsd">

    <location netOffset="-780511.06,-3458973.00" convBoundary="0.00,0.00,4477.58,4441.79" origBoundary="29.944861,31.231273,29.993074,31.270244" projParameter="+proj=utm +zone=35 +ellps=WGS84 +datum=WGS84 +units=m +no_defs"/>

    <type id="highway.footway" priority="1" numLanes="1" speed="2.78" allow="pedestrian" oneway="1" width="2.00"/>
    <type id="highway.trunk" priority="13" numLanes="2" speed="27.78" disallow="pedestrian bicycle tram rail_urban rail rail_electric rail_fast ship container cable_car subway aircraft wheelchair scooter drone" oneway="0"/>

    <edge id=":5391780368_0" function="internal">
        <lane id=":5391780368_0_0" index="0" disallow="pedestrian bicycle tram rail_urban rail rail_electric rail_fast ship container cable_car subway aircraft wheelchair scooter drone" speed="19.44" length="0.27" shape="131.68,167.48 131.82,167.68"/>
        <lane id=":5391780368_0_1" index="1" disallow="pedestrian bicycle tram rail_urban rail rail_electric rail_fast ship container cable_car subway aircraft wheelchair scooter drone" speed="19.44" length="0.27" shape="129.04,169.29 129.22,169.55"/>
    </edge>
    <edge id=":5503105405_0" function="internal">
        <lane id=":5503105405_0_0" index="0" disallow="pedestrian bicycle tram rail_urban rail rail_electric rail_fast ship container cable_car subway aircraft wheelchair scooter drone" speed="19.44" length="0.30" shape="2484.69,2390.39 2484.54,2390.25"/>
        <lane id=":5503105405_0_1" index="1" disallow="pedestrian bicycle tram rail_urban rail rail_electric rail_fast ship container cable_car subway aircraft wheelchair scooter drone" speed="19.44" length="0.30" shape="2486.94,2388.11 2486.75,2387.93"/>
        <lane id=":5503105405_0_2" index="2" disallow="pedestrian bicycle tram rail_urban rail rail_electric rail_fast ship container cable_car subway aircraft wheelchair scooter drone" speed="19.44" length="0.30" shape="2489.19,2385.84 2488.95,2385.61"/>
        <lane id=":5503105405_0_3" index="3" disallow="pedestrian bicycle tram rail_urban rail rail_electric rail_fast ship container cable_car subway aircraft wheelchair scooter drone" speed="19.44" length="0.30" shape="2491.44,2383.56 2491.16,2383.29"/>
    </edge>
    <edge id=":5503105406_0" function="internal">
        <lane id=":5503105406_0_0" index="0" disallow="pedestrian bicycle tram rail_urban rail rail_electric rail_fast ship container cable_car subway aircraft wheelchair scooter drone" speed="19.44" length="0.28" shape="2501.26,2371.67 2501.49,2371.88"/>
        <lane id=":5503105406_0_1" index="1" disallow="pedestrian bicycle tram rail_urban rail rail_electric rail_fast ship container cable_car subway aircraft wheelchair scooter drone" speed="19.44" length="0.28" shape="2499.12,2374.05 2499.29,2374.21"/>
    </edge>
    <edge id=":6082411792_0" function="internal">
        <lane id=":6082411792_0_0" index="0" disallow="pedestrian bicycle tram rail_urban rail rail_electric rail_fast ship container cable_car subway aircraft wheelchair scooter drone" speed="19.44" length="4.88" shape="1941.26,1674.83 1943.59,1679.06"/>
        <lane id=":6082411792_0_1" index="1" disallow="pedestrian bicycle tram rail_urban rail rail_electric rail_fast ship container cable_car subway aircraft wheelchair scooter drone" speed="19.44" length="4.88" shape="1938.43,1676.33 1940.82,1680.65"/>
    </edge>
    <edge id=":6082411793_0" function="internal">
        <lane id=":6082411793_0_0" index="0" disallow="pedestrian bicycle tram rail_urban rail rail_electric rail_fast ship container cable_car subway aircraft wheelchair scooter drone" speed="19.44" length="5.30" shape="1922.14,1691.04 1919.53,1686.18"/>
        <lane id=":6082411793_0_1" index="1" disallow="pedestrian bicycle tram rail_urban rail rail_electric rail_fast ship container cable_car subway aircraft wheelchair scooter drone" speed="19.44" length="5.30" shape="1924.92,1689.45 1922.38,1684.73"/>
        <lane id=":6082411793_0_2" index="2" disallow="pedestrian bicycle tram rail_urban rail rail_electric rail_fast ship container cable_car subway aircraft wheelchair scooter drone" speed="19.44" length="5.30" shape="1927.71,1687.87 1925.23,1683.27"/>
        <lane id=":6082411793_0_3" index="3" disallow="pedestrian bicycle tram rail_urban rail rail_electric rail_fast ship container cable_car subway aircraft wheelchair scooter drone" speed="19.44" length="5.30" shape="1930.49,1686.29 1928.08,1681.82"/>
    </edge>

    <edge id="178126173#0" from="5503106622" to="5503105405" priority="13" type="highway.trunk" spreadType="center" shape="3701.67,3569.77 3696.47,3567.21 3690.49,3564.67 3684.78,3562.55 3661.93,3552.09 3643.24,3542.56 3622.86,3532.56 3594.26,3521.24 3575.57,3516.97 3557.07,3512.02 3538.78,3506.36 3525.39,3500.80 3512.73,3494.31 3499.83,3487.02 3488.37,3479.64 3477.15,3470.54 3466.25,3461.05 3455.70,3451.19 3445.54,3440.92 3437.23,3431.48 3429.45,3421.59 3422.24,3411.29 3415.60,3400.61 3409.58,3389.58 3404.18,3378.23 3399.51,3366.56 3396.01,3358.82 3392.94,3350.89 3390.31,3342.80 3387.82,3334.34 3384.07,3320.31 3379.70,3306.12 3374.95,3292.04 3369.79,3278.11 3362.73,3263.94 3355.17,3250.03 3347.10,3236.40 3338.53,3223.09 3329.75,3210.04 3319.56,3194.64 3309.58,3179.27 3299.11,3164.21 3288.12,3149.53 3274.79,3131.57 3260.46,3114.43 3246.71,3097.83 3237.42,3086.19 3227.98,3075.78 3217.81,3066.08 3206.98,3057.12 3194.31,3047.40 3180.16,3035.65 3166.02,3024.27 3152.98,3011.75 3140.63,2998.58 3133.47,2989.30 3126.97,2979.55 3121.15,2969.39 3116.03,2958.85 3111.10,2948.20 3104.60,2932.00 3097.21,2916.18 3088.95,2900.81 3079.82,2885.92 3068.26,2869.44 3055.98,2853.49 3043.01,2838.08 3029.36,2823.26 3015.04,2809.08 2997.73,2793.02 2979.75,2778.09 2960.11,2761.68 2937.28,2742.65 2913.73,2724.54 2889.49,2707.34 2864.60,2691.09 2853.62,2686.42 2839.08,2681.71 2825.62,2679.15 2811.98,2677.81 2791.45,2676.28 2771.02,2673.85 2750.70,2670.50 2729.90,2665.48 2709.90,2657.88 2691.02,2647.84 2673.56,2635.52 2658.38,2621.62 2644.09,2606.80 2630.78,2591.14 2618.47,2574.67 2607.21,2557.46 2597.06,2539.59 2589.77,2527.24 2582.34,2513.63 2572.48,2495.60 2563.93,2482.14 2550.62,2460.79 2538.65,2444.06 2526.05,2428.11 2512.47,2412.42 2498.56,2397.36 2487.96,2386.87">
        <lane id="178126173#0_0" index="0" disallow="pedestrian bicycle tram rail_urban rail rail_electric rail_fast ship container cable_car subway aircraft wheelchair scooter drone" speed="19.44" length="1770.63" shape="3699.55,3574.07 3694.47,3571.57 3688.72,3569.13 3682.95,3566.99 3659.84,3556.41 3641.09,3546.85 3620.91,3536.96 3592.83,3525.83 3574.42,3521.63 3555.74,3516.63 3537.14,3510.88 3523.37,3505.15 3510.46,3498.53 3497.35,3491.13 3485.55,3483.53 3474.06,3474.21 3463.03,3464.62 3452.35,3454.63 3442.03,3444.19 3433.54,3434.55 3425.59,3424.45 3418.23,3413.93 3411.45,3403.03 3405.30,3391.76 3399.78,3380.15 3395.09,3368.44 3391.58,3360.67 3388.42,3352.50 3385.72,3344.22 3383.20,3335.63 3379.46,3321.63 3375.13,3307.59 3370.42,3293.64 3365.38,3280.02 3358.48,3266.16 3350.99,3252.40 3343.02,3238.93 3334.52,3225.73 3325.75,3212.71 3315.55,3197.27 3305.60,3181.95 3295.22,3167.02 3284.27,3152.40 3271.02,3134.54 3256.77,3117.50 3242.98,3100.86 3233.76,3089.31 3224.54,3079.14 3214.62,3069.66 3203.99,3060.87 3191.31,3051.15 3177.13,3039.37 3162.85,3027.88 3149.56,3015.13 3136.97,3001.69 3129.57,2992.10 3122.89,2982.08 3116.90,2971.63 3111.70,2960.91 3106.69,2950.10 3100.20,2933.91 3092.92,2918.33 3084.79,2903.20 3075.81,2888.56 3064.39,2872.29 3052.24,2856.50 3039.41,2841.25 3025.91,2826.59 3011.72,2812.54 2994.57,2796.63 2976.68,2781.78 2957.03,2765.37 2934.28,2746.40 2910.87,2728.40 2886.79,2711.31 2862.34,2695.34 2851.94,2690.92 2837.88,2686.37 2824.93,2683.90 2811.57,2682.60 2790.99,2681.06 2770.34,2678.60 2749.75,2675.21 2728.48,2670.07 2707.92,2662.26 2688.50,2651.94 2670.55,2639.26 2655.03,2625.06 2640.53,2610.02 2627.02,2594.13 2614.53,2577.42 2603.11,2559.96 2592.91,2541.99 2585.59,2529.61 2578.12,2515.94 2568.34,2498.04 2559.87,2484.70 2546.63,2463.45 2534.81,2446.95 2522.35,2431.17 2508.89,2415.62 2495.11,2400.69 2484.69,2390.39"/>
        <lane id="178126173#0_1" index="1" disallow="pedestrian bicycle tram rail_urban rail rail_electric rail_fast ship container cable_car subway aircraft wheelchair scooter drone" speed="19.44" length="1770.63" shape="3700.97,3571.20 3695.80,3568.66 3689.90,3566.16 3684.17,3564.03 3661.23,3553.53 3642.52,3543.99 3622.21,3534.03 3593.78,3522.77 3575.19,3518.52 3556.63,3513.56 3538.23,3507.87 3524.72,3502.25 3511.97,3495.71 3499.00,3488.39 3487.43,3480.94 3476.12,3471.76 3465.18,3462.24 3454.58,3452.34 3444.37,3442.01 3436.00,3432.50 3428.17,3422.55 3420.90,3412.17 3414.22,3401.42 3408.15,3390.31 3402.71,3378.87 3398.03,3367.19 3394.53,3359.44 3391.43,3351.42 3388.78,3343.28 3386.28,3334.77 3382.53,3320.75 3378.18,3306.61 3373.44,3292.57 3368.32,3278.75 3361.31,3264.68 3353.78,3250.82 3345.74,3237.25 3337.19,3223.97 3328.41,3210.93 3318.22,3195.52 3308.26,3180.16 3297.82,3165.15 3286.83,3150.49 3273.53,3132.56 3259.23,3115.45 3245.47,3098.84 3236.20,3087.23 3226.83,3076.90 3216.75,3067.27 3205.99,3058.37 3193.31,3048.65 3179.15,3036.89 3164.96,3025.47 3151.84,3012.88 3139.41,2999.62 3132.17,2990.23 3125.61,2980.40 3119.73,2970.14 3114.59,2959.54 3109.63,2948.83 3103.14,2932.63 3095.78,2916.90 3087.56,2901.61 3078.48,2886.80 3066.97,2870.39 3054.74,2854.49 3041.81,2839.13 3028.21,2824.37 3013.93,2810.23 2996.68,2794.22 2978.73,2779.32 2959.08,2762.91 2936.28,2743.90 2912.78,2725.83 2888.59,2708.66 2863.85,2692.50 2853.06,2687.92 2838.68,2683.26 2825.39,2680.73 2811.84,2679.41 2791.29,2677.88 2770.79,2675.43 2750.39,2672.07 2729.43,2667.01 2709.24,2659.34 2690.18,2649.21 2672.56,2636.77 2657.26,2622.77 2642.91,2607.87 2629.53,2592.14 2617.15,2575.59 2605.84,2558.30 2595.68,2540.39 2588.38,2528.03 2580.93,2514.40 2571.10,2496.41 2562.58,2482.99 2549.29,2461.68 2537.37,2445.02 2524.82,2429.13 2511.28,2413.49 2497.41,2398.47 2486.94,2388.11"/>
        <lane id="178126173#0_2" index="2" disallow="pedestrian bicycle tram rail_urban rail rail_electric rail_fast ship container cable_car subway aircraft wheelchair scooter drone" speed="19.44" length="1770.63" shape="3702.38,3568.33 3697.14,3565.75 3691.09,3563.18 3685.40,3561.07 3662.63,3550.65 3643.95,3541.13 3623.50,3531.10 3594.73,3519.70 3575.96,3515.42 3557.51,3510.48 3539.32,3504.86 3526.06,3499.34 3513.49,3492.90 3500.66,3485.65 3489.31,3478.34 3478.18,3469.31 3467.32,3459.86 3456.81,3450.04 3446.71,3439.82 3438.46,3430.46 3430.74,3420.64 3423.57,3410.41 3416.99,3399.80 3411.01,3388.85 3405.64,3377.58 3400.98,3365.93 3397.48,3358.20 3394.45,3350.35 3391.84,3342.33 3389.36,3333.90 3385.61,3319.86 3381.22,3305.62 3376.46,3291.50 3371.26,3277.48 3364.15,3263.20 3356.56,3249.24 3348.46,3235.56 3339.86,3222.21 3331.08,3209.16 3320.90,3193.77 3310.91,3178.38 3300.41,3163.28 3289.40,3148.58 3276.05,3130.58 3261.69,3113.40 3247.95,3096.82 3238.64,3085.16 3229.12,3074.67 3218.87,3064.88 3207.98,3055.86 3195.31,3046.14 3181.18,3034.41 3167.07,3023.07 3154.12,3010.63 3141.85,2997.54 3134.77,2988.36 3128.33,2978.71 3122.56,2968.64 3117.48,2958.16 3112.57,2947.56 3106.07,2931.36 3098.64,2915.46 3090.34,2900.01 3081.16,2885.05 3069.55,2868.50 3057.23,2852.48 3044.22,2837.02 3030.51,2822.15 3016.15,2807.92 2998.79,2791.81 2980.78,2776.86 2961.13,2760.45 2938.28,2741.40 2914.68,2723.25 2890.39,2706.02 2865.36,2689.67 2854.18,2684.92 2839.47,2680.15 2825.85,2677.56 2812.12,2676.22 2791.60,2674.69 2771.24,2672.26 2751.02,2668.93 2730.38,2663.95 2710.57,2656.42 2691.86,2646.47 2674.57,2634.27 2659.49,2620.48 2645.28,2605.73 2632.03,2590.14 2619.78,2573.75 2608.58,2556.63 2598.45,2538.79 2591.16,2526.45 2583.74,2512.87 2573.86,2494.79 2565.29,2481.29 2551.95,2459.90 2539.93,2443.10 2527.29,2427.09 2513.66,2411.36 2499.71,2396.24 2489.19,2385.84"/>
        <lane id="178126173#0_3" index="3" disallow="pedestrian bicycle tram rail_urban rail rail_electric rail_fast ship container cable_car subway aircraft wheelchair scooter drone" speed="19.44" length="1770.63" shape="3703.79,3565.46 3698.47,3562.84 3692.27,3560.21 3686.62,3558.11 3664.02,3547.77 3645.38,3538.27 3624.80,3528.17 3595.68,3516.64 3576.73,3512.31 3558.40,3507.41 3540.41,3501.84 3527.41,3496.44 3515.01,3490.08 3502.31,3482.91 3491.19,3475.75 3480.24,3466.86 3469.47,3457.49 3459.04,3447.75 3449.06,3437.64 3440.92,3428.41 3433.31,3418.73 3426.24,3408.64 3419.75,3398.19 3413.86,3387.40 3408.58,3376.30 3403.92,3364.68 3400.44,3356.96 3397.47,3349.28 3394.90,3341.38 3392.44,3333.04 3388.69,3318.98 3384.27,3304.64 3379.48,3290.44 3374.20,3276.20 3366.99,3261.72 3359.34,3247.66 3351.18,3233.88 3342.54,3220.45 3333.74,3207.38 3323.58,3192.01 3313.57,3176.59 3303.01,3161.40 3291.97,3146.66 3278.56,3128.60 3264.15,3111.36 3250.43,3094.80 3241.08,3083.08 3231.42,3072.43 3221.00,3062.49 3209.98,3053.36 3197.30,3043.64 3183.20,3031.93 3169.19,3020.66 3156.39,3008.38 3144.29,2995.46 3137.37,2986.50 3131.06,2977.03 3125.39,2967.14 3120.37,2956.79 3115.51,2946.29 3109.01,2930.08 3101.50,2914.03 3093.12,2898.42 3083.83,2883.29 3072.13,2866.60 3059.72,2850.47 3046.62,2834.90 3032.82,2819.92 3018.36,2805.61 3000.90,2789.41 2982.83,2774.40 2963.18,2758.00 2940.28,2738.91 2916.58,2720.68 2892.19,2703.37 2866.87,2686.83 2855.30,2681.92 2840.27,2677.05 2826.30,2674.39 2812.39,2673.03 2791.91,2671.50 2771.69,2669.09 2751.66,2665.79 2731.32,2660.88 2711.89,2653.50 2693.54,2643.74 2676.58,2631.77 2661.73,2618.18 2647.65,2603.58 2634.53,2588.14 2622.40,2571.92 2611.31,2554.96 2601.22,2537.18 2593.94,2524.87 2586.55,2511.33 2576.61,2493.16 2568.00,2479.59 2554.61,2458.12 2542.48,2441.17 2529.75,2425.05 2516.05,2409.23 2502.02,2394.02 2491.44,2383.56"/>
    </edge>
    <edge id="178126173#1" from="5503105405" to="6082411793" priority="13" type="highway.trunk" spreadType="center" shape="2487.96,2386.87 2477.25,2376.70 2394.98,2300.31 2377.16,2283.73 2360.23,2266.25 2344.23,2247.93 2329.30,2228.73 2314.97,2208.90 2301.85,2188.27 2289.97,2166.90 2279.37,2144.86 2269.72,2126.21 2262.44,2112.13 2245.90,2085.10 2236.65,2072.20 2226.85,2059.75 2216.44,2047.78 2205.79,2036.00 2193.77,2023.29 2181.97,2010.37 2170.38,1997.27 2159.02,1983.97 2147.68,1970.62 2141.28,1961.67 2138.48,1958.31 2128.51,1946.60 2117.81,1935.55 2106.44,1925.19 2094.43,1915.56 2081.13,1906.35 2061.09,1892.95 2048.41,1882.32 2042.59,1877.45 2025.74,1860.19 2010.68,1841.36 1997.57,1821.14 1985.38,1799.82 1949.49,1729.37 1925.00,1686.34">
        <lane id="178126173#1_0" index="0" disallow="pedestrian bicycle tram rail_urban rail rail_electric rail_fast ship container cable_car subway aircraft wheelchair scooter drone" speed="19.44" length="905.65" shape="2484.54,2390.25 2473.96,2380.19 2391.72,2303.83 2373.80,2287.16 2356.70,2269.50 2340.53,2250.98 2325.46,2231.61 2311.00,2211.60 2297.72,2190.73 2285.70,2169.11 2275.07,2147.00 2265.45,2128.42 2258.25,2114.49 2241.90,2087.75 2232.82,2075.08 2223.16,2062.81 2212.85,2050.97 2202.27,2039.26 2190.25,2026.56 2178.40,2013.58 2166.76,2000.42 2155.37,1987.08 2143.90,1973.58 2137.48,1964.61 2134.81,1961.40 2124.95,1949.83 2114.47,1938.99 2103.32,1928.84 2091.55,1919.41 2078.43,1910.32 2058.21,1896.79 2045.33,1886.00 2039.32,1880.97 2022.14,1863.38 2006.78,1844.18 1993.47,1823.63 1981.16,1802.10 1945.26,1731.65 1922.14,1691.04"/>
        <lane id="178126173#1_1" index="1" disallow="pedestrian bicycle tram rail_urban rail rail_electric rail_fast ship container cable_car subway aircraft wheelchair scooter drone" speed="19.44" length="905.65" shape="2486.75,2387.93 2476.15,2377.86 2393.89,2301.49 2376.04,2284.87 2359.05,2267.33 2343.00,2248.95 2328.02,2229.69 2313.65,2209.80 2300.47,2189.09 2288.55,2167.63 2277.94,2145.57 2268.29,2126.95 2261.04,2112.92 2244.56,2085.98 2235.38,2073.16 2225.62,2060.77 2215.24,2048.84 2204.62,2037.08 2192.60,2024.38 2180.78,2011.44 2169.18,1998.32 2157.81,1985.00 2146.42,1971.61 2140.01,1962.65 2137.26,1959.34 2127.32,1947.68 2116.70,1936.70 2105.40,1926.40 2093.47,1916.85 2080.23,1907.67 2060.13,1894.23 2047.38,1883.55 2041.50,1878.62 2024.54,1861.25 2009.38,1842.30 1996.20,1821.97 1983.97,1800.58 1948.08,1730.13 1924.92,1689.45"/>
        <lane id="178126173#1_2" index="2" disallow="pedestrian bicycle tram rail_urban rail rail_electric rail_fast ship container cable_car subway aircraft wheelchair scooter drone" speed="19.44" length="905.65" shape="2488.95,2385.61 2478.34,2375.53 2396.07,2299.14 2378.28,2282.59 2361.41,2265.17 2345.47,2246.91 2330.58,2227.77 2316.30,2208.00 2303.22,2187.45 2291.39,2166.16 2280.80,2144.15 2271.14,2125.48 2263.83,2111.35 2247.23,2084.21 2237.93,2071.23 2228.09,2058.73 2217.64,2046.72 2206.97,2034.91 2194.94,2022.20 2183.16,2009.30 2171.59,1996.22 2160.24,1982.93 2148.95,1969.64 2142.55,1960.69 2139.70,1957.28 2129.69,1945.52 2118.93,1934.40 2107.48,1923.97 2095.38,1914.28 2082.04,1905.03 2062.05,1891.67 2049.44,1881.09 2043.68,1876.27 2026.94,1859.13 2011.98,1840.43 1998.93,1820.30 1986.79,1799.06 1950.90,1728.61 1927.71,1687.87"/>
        <lane id="178126173#1_3" index="3" disallow="pedestrian bicycle tram rail_urban rail rail_electric rail_fast ship container cable_car subway aircraft wheelchair scooter drone" speed="19.44" length="905.65" shape="2491.16,2383.29 2480.53,2373.20 2398.25,2296.80 2380.52,2280.30 2363.77,2263.00 2347.94,2244.88 2333.14,2225.85 2318.95,2206.20 2305.97,2185.81 2294.23,2164.69 2283.66,2142.72 2273.98,2124.01 2266.62,2109.77 2249.90,2082.44 2240.49,2069.31 2230.55,2056.68 2220.03,2044.60 2209.32,2032.74 2197.28,2020.02 2185.54,2007.17 2174.01,1994.12 2162.68,1980.85 2151.47,1967.66 2145.08,1958.73 2142.15,1955.22 2132.06,1943.37 2121.16,1932.10 2109.56,1921.54 2097.30,1911.71 2083.84,1902.38 2063.97,1889.10 2051.49,1878.64 2045.86,1873.92 2029.34,1857.01 2014.57,1838.55 2001.67,1818.64 1989.61,1797.54 1953.71,1727.10 1930.49,1686.29"/>
    </edge>
    <edge id="178126173#2" from="6082411793" to="2575537664" priority="13" type="highway.trunk" spreadType="center" shape="1925.00,1686.34 1895.83,1629.08 1885.28,1609.89 1878.54,1597.35 1870.94,1585.30 1862.51,1573.82 1853.29,1562.94 1843.32,1552.74 1832.67,1543.27 1816.66,1529.22 1800.60,1516.40 1781.19,1499.94 1768.35,1488.46 1753.16,1473.48 1738.78,1459.19 1724.71,1444.58 1712.22,1431.05 1700.00,1417.27 1688.07,1403.26 1676.43,1389.00 1665.12,1374.48 1656.72,1364.02 1647.73,1354.05 1638.20,1344.54 1628.53,1336.14 1618.43,1328.20 1607.91,1320.82 1596.99,1314.04 1568.44,1298.03 1542.17,1284.54 1519.25,1271.08 1506.28,1262.80 1493.79,1253.84 1481.80,1244.22 1470.35,1233.98 1459.46,1223.14 1449.17,1211.73 1439.44,1198.91 1424.23,1176.41 1411.08,1157.03 1400.92,1143.39 1389.40,1130.85 1375.75,1118.44 1363.23,1109.17 1348.72,1100.43 1333.19,1093.63 1316.90,1088.89 1300.13,1086.31 1283.16,1085.91 1266.29,1087.72 1249.80,1091.68 1233.97,1097.76 1219.07,1105.83 1205.36,1115.77 1194.40,1123.19 1182.22,1128.38 1169.27,1131.17 1158.44,1131.56 1147.36,1130.06 1136.62,1126.98 1126.44,1122.39 1117.02,1116.37 1108.17,1109.52 1087.42,1090.18 1066.47,1071.08 1046.23,1054.55 1008.95,1020.83 972.01,990.13 934.49,960.15 894.27,928.89 884.83,921.29 873.88,911.02 863.73,899.96 854.46,888.18 846.09,875.74 838.69,862.70 832.29,849.16 826.94,835.16 822.62,821.83 812.83,792.00 805.53,773.31 798.87,760.26 790.20,745.31 780.54,730.98 769.92,717.33 758.39,704.43 746.02,692.34 732.86,681.11 718.96,670.78 708.05,663.64 696.79,657.07 685.21,651.08 673.19,646.03 656.83,639.82 640.09,634.70 623.05,630.71 605.78,627.85 588.36,626.00 572.95,624.12 558.00,619.91 543.87,613.50 531.43,605.28">
        <lane id="178126173#2_0" index="0" disallow="pedestrian bicycle tram rail_urban rail rail_electric rail_fast ship container cable_car subway aircraft wheelchair scooter drone" speed="19.44" length="1890.53" shape="1919.53,1686.18 1891.59,1631.33 1881.06,1612.18 1874.39,1599.76 1866.97,1588.00 1858.74,1576.80 1849.74,1566.17 1840.01,1556.22 1829.49,1546.86 1813.58,1532.90 1797.55,1520.11 1778.04,1503.56 1765.06,1491.96 1749.79,1476.89 1735.36,1462.55 1721.21,1447.87 1708.66,1434.27 1696.38,1420.42 1684.38,1406.33 1672.67,1392.00 1661.35,1377.46 1653.06,1367.13 1644.25,1357.36 1634.93,1348.06 1625.47,1339.84 1615.57,1332.05 1605.26,1324.83 1594.55,1318.17 1566.17,1302.26 1539.86,1288.75 1516.74,1275.17 1503.59,1266.77 1490.89,1257.66 1478.70,1247.88 1467.05,1237.47 1455.98,1226.45 1445.47,1214.80 1435.54,1201.71 1420.26,1179.10 1407.17,1159.81 1397.22,1146.45 1386.01,1134.25 1372.70,1122.16 1360.55,1113.16 1346.51,1104.70 1331.55,1098.15 1315.86,1093.58 1299.70,1091.10 1283.36,1090.71 1267.11,1092.46 1251.22,1096.28 1235.98,1102.13 1221.63,1109.90 1208.11,1119.70 1196.71,1127.42 1183.68,1132.98 1169.87,1135.96 1158.20,1136.37 1146.37,1134.77 1134.96,1131.50 1124.14,1126.62 1114.26,1120.30 1105.06,1113.18 1084.17,1093.71 1063.33,1074.71 1043.10,1058.20 1005.80,1024.46 968.98,993.85 931.52,963.92 891.29,932.65 881.68,924.91 870.46,914.40 860.08,903.07 850.57,891.01 842.01,878.27 834.43,864.91 827.87,851.04 822.41,836.76 818.06,823.32 808.31,793.63 801.15,775.28 794.65,762.55 786.13,747.86 776.65,733.80 766.23,720.41 754.92,707.75 742.79,695.88 729.87,684.86 716.21,674.72 705.52,667.73 694.48,661.28 683.18,655.43 671.41,650.49 655.28,644.37 638.84,639.34 622.11,635.42 605.14,632.61 587.82,630.77 572.00,628.84 556.35,624.43 541.54,617.71 528.78,609.29"/>
        <lane id="178126173#2_1" index="1" disallow="pedestrian bicycle tram rail_urban rail rail_electric rail_fast ship container cable_car subway aircraft wheelchair scooter drone" speed="19.44" length="1890.53" shape="1922.38,1684.73 1894.42,1629.83 1883.87,1610.65 1877.16,1598.15 1869.62,1586.20 1861.25,1574.81 1852.11,1564.02 1842.22,1553.90 1831.61,1544.46 1815.63,1530.45 1799.59,1517.64 1780.14,1501.15 1767.26,1489.62 1752.04,1474.61 1737.64,1460.31 1723.54,1445.68 1711.03,1432.12 1698.79,1418.32 1686.84,1404.28 1675.17,1390.00 1663.86,1375.48 1655.50,1365.05 1646.57,1355.16 1637.11,1345.71 1627.51,1337.37 1617.48,1329.48 1607.02,1322.16 1596.18,1315.42 1567.68,1299.44 1541.40,1285.95 1518.41,1272.44 1505.39,1264.12 1492.83,1255.11 1480.76,1245.44 1469.25,1235.14 1458.30,1224.24 1447.94,1212.76 1438.14,1199.84 1422.91,1177.30 1409.77,1157.96 1399.68,1144.41 1388.27,1131.98 1374.73,1119.68 1362.34,1110.50 1347.98,1101.85 1332.64,1095.14 1316.55,1090.45 1299.98,1087.90 1283.23,1087.51 1266.57,1089.30 1250.27,1093.21 1234.64,1099.22 1219.92,1107.19 1206.27,1117.08 1195.17,1124.60 1182.71,1129.91 1169.47,1132.77 1158.36,1133.16 1147.03,1131.63 1136.07,1128.49 1125.67,1123.80 1116.10,1117.68 1107.13,1110.74 1086.34,1091.36 1065.43,1072.29 1045.19,1055.77 1007.90,1022.04 971.00,991.37 933.50,961.41 893.27,930.14 883.78,922.50 872.74,912.14 862.52,901.00 853.16,889.12 844.73,876.58 837.27,863.44 830.82,849.79 825.43,835.70 821.10,822.33 811.33,792.55 804.07,773.97 797.46,761.02 788.84,746.16 779.24,731.92 768.69,718.36 757.24,705.54 744.95,693.52 731.86,682.36 718.04,672.09 707.21,665.00 696.02,658.47 684.54,652.53 672.60,647.52 656.31,641.34 639.67,636.25 622.74,632.28 605.57,629.43 588.18,627.59 572.63,625.69 557.45,621.42 543.09,614.90 530.55,606.62"/>
        <lane id="178126173#2_2" index="2" disallow="pedestrian bicycle tram rail_urban rail rail_electric rail_fast ship container cable_car subway aircraft wheelchair scooter drone" speed="19.44" length="1890.53" shape="1925.23,1683.27 1897.25,1628.33 1886.68,1609.13 1879.92,1596.54 1872.26,1584.40 1863.76,1572.83 1854.48,1561.86 1844.43,1551.58 1833.73,1542.07 1817.69,1527.99 1801.62,1515.17 1782.24,1498.74 1769.45,1487.29 1754.29,1472.34 1739.92,1458.06 1725.87,1443.48 1713.40,1429.98 1701.21,1416.22 1689.30,1402.23 1677.68,1388.01 1666.37,1373.49 1657.94,1362.98 1648.89,1352.95 1639.29,1343.37 1629.55,1334.90 1619.39,1326.91 1608.79,1319.49 1597.80,1312.66 1569.20,1296.62 1542.94,1283.14 1520.08,1269.71 1507.18,1261.47 1494.76,1252.56 1482.83,1242.99 1471.44,1232.81 1460.62,1222.04 1450.41,1210.71 1440.74,1197.98 1425.56,1175.51 1412.38,1156.10 1402.15,1142.37 1390.53,1129.71 1376.76,1117.20 1364.12,1107.84 1349.46,1099.00 1333.73,1092.12 1317.24,1087.32 1300.27,1084.71 1283.10,1084.30 1266.02,1086.14 1249.32,1090.15 1233.30,1096.30 1218.21,1104.47 1204.44,1114.46 1193.63,1121.78 1181.73,1126.85 1169.07,1129.58 1158.52,1129.96 1147.69,1128.49 1137.17,1125.47 1127.20,1120.98 1117.95,1115.06 1109.21,1108.30 1088.51,1089.01 1067.52,1069.87 1047.27,1053.34 1009.99,1019.62 973.02,988.89 935.48,958.89 895.26,927.63 885.88,920.08 875.02,909.89 864.95,898.92 855.75,887.24 847.46,874.90 840.11,861.96 833.77,848.53 828.45,834.63 824.14,821.33 814.34,791.46 807.00,772.65 800.27,759.49 791.55,744.46 781.84,730.04 771.15,716.31 759.55,703.32 747.10,691.15 733.86,679.85 719.87,669.47 708.89,662.28 697.56,655.67 685.89,649.63 673.78,644.54 657.35,638.31 640.51,633.16 623.37,629.14 606.00,626.26 588.54,624.42 573.26,622.54 558.55,618.40 544.65,612.09 532.31,603.95"/>
        <lane id="178126173#2_3" index="3" disallow="pedestrian bicycle tram rail_urban rail rail_electric rail_fast ship container cable_car subway aircraft wheelchair scooter drone" speed="19.44" length="1890.53" shape="1928.08,1681.82 1900.08,1626.84 1889.50,1607.60 1882.69,1594.93 1874.91,1582.59 1866.28,1570.84 1856.84,1559.71 1846.64,1549.27 1835.85,1539.67 1819.74,1525.54 1803.65,1512.69 1784.35,1496.32 1771.64,1484.96 1756.54,1470.07 1742.20,1455.82 1728.20,1441.29 1715.78,1427.83 1703.62,1414.12 1691.75,1400.18 1680.18,1386.01 1668.88,1371.51 1660.38,1360.90 1651.21,1350.74 1641.47,1341.03 1631.59,1332.44 1621.30,1324.34 1610.55,1316.82 1599.43,1309.90 1570.71,1293.80 1544.49,1280.34 1521.76,1266.98 1508.98,1258.82 1496.70,1250.01 1484.90,1240.55 1473.64,1230.48 1462.94,1219.83 1452.87,1208.67 1443.34,1196.11 1428.21,1173.72 1414.99,1154.25 1404.62,1140.32 1392.79,1127.44 1378.80,1114.73 1365.90,1105.18 1350.93,1096.15 1334.83,1089.11 1317.94,1084.19 1300.55,1081.51 1282.96,1081.10 1265.47,1082.98 1248.37,1087.09 1231.96,1093.39 1216.50,1101.76 1202.60,1111.84 1192.09,1118.96 1180.76,1123.78 1168.68,1126.39 1158.68,1126.75 1148.35,1125.35 1138.28,1122.46 1128.73,1118.16 1119.79,1112.44 1111.28,1105.85 1090.68,1086.65 1069.61,1067.44 1049.36,1050.91 1012.09,1017.20 975.04,986.41 937.46,956.38 897.24,925.12 887.98,917.66 877.30,907.64 867.39,896.85 858.34,885.35 850.18,873.21 842.95,860.49 836.71,847.27 831.46,833.57 827.18,820.34 817.35,790.38 809.92,771.34 803.08,757.96 794.27,742.76 784.43,728.16 773.61,714.26 761.86,701.11 749.26,688.79 735.85,677.35 721.71,666.84 710.57,659.56 699.11,652.86 687.25,646.73 674.97,641.57 658.39,635.28 641.34,630.06 623.99,626.00 606.43,623.09 588.91,621.24 573.89,619.40 559.65,615.39 546.20,609.28 534.07,601.28"/>
    </edge>
    <edge id="522581343#0" from="5503066941" to="6082407403" priority="1" type="highway.footway" spreadType="center" shape="4477.58,4431.38 4470.41,4429.68 4456.60,4426.42 4426.87,4428.65 4408.73,4433.71 4373.32,4439.80 4344.11,4441.79 4292.57,4434.59 4234.86,4423.65 4229.90,4422.70 4217.27,4421.94 4164.57,4429.96 4149.14,4431.63 4112.70,4431.07 4080.04,4430.80 4044.80,4432.37 4015.06,4425.27 3987.75,4414.25 3958.95,4396.07 3933.50,4370.63 3916.36,4349.83 3902.48,4325.12 3895.39,4299.13 3885.89,4245.39 3883.71,4224.78 3883.69,4221.26 3883.27,4202.11 3885.18,4185.81 3889.39,4174.94 3891.79,4168.61 3901.47,4152.28 3923.19,4120.98 3930.68,4109.23 3935.87,4096.15 3942.46,4047.68 3945.31,4020.28 3945.36,3995.12 3940.33,3968.48 3935.05,3947.58 3929.57,3924.64 3900.64,3848.55 3867.53,3771.31 3851.82,3746.21 3829.25,3711.19 3816.04,3694.81 3796.15,3673.44 3775.17,3651.94 3705.31,3581.04 3669.29,3567.14 3642.09,3551.23 3613.09,3535.69 3583.51,3525.85 3559.73,3519.96 3543.05,3515.31 3516.41,3504.27 3482.13,3484.21 3455.67,3462.75 3440.90,3448.02 3419.36,3418.49 3402.28,3387.29 3392.19,3366.68 3383.02,3341.50 3378.78,3324.77 3369.16,3293.37 3362.26,3276.10 3356.49,3263.57 3337.60,3233.97 3317.72,3205.41 3303.67,3183.69 3284.72,3156.33 3265.07,3130.89 3232.54,3093.86 3207.75,3067.20 3185.17,3048.19 3160.13,3025.69 3143.02,3010.42 3135.07,3000.54 3123.78,2985.04 3111.28,2963.38 3100.58,2943.97 3090.42,2924.21 3075.56,2895.28 3051.82,2860.04 3009.85,2815.45 2980.60,2788.88 2947.25,2765.14 2915.14,2743.48 2864.18,2702.41 2845.10,2695.58 2837.26,2692.78 2813.42,2687.91 2777.61,2686.94 2744.31,2683.62 2713.89,2674.65 2681.54,2657.76 2656.88,2637.76 2620.04,2596.59 2602.20,2571.63 2574.83,2527.69 2551.64,2496.81 2537.70,2475.02 2515.64,2448.75 2494.94,2427.94 2470.92,2406.10 2395.66,2337.65 2359.86,2302.85 2309.23,2243.48 2284.60,2210.79 2272.42,2189.61 2245.83,2128.46 2238.81,2107.43 2228.15,2085.99 2171.97,2018.32 2156.71,1998.87 2132.01,1970.38 2108.03,1946.19 2051.79,1898.76 2044.21,1892.15 2022.84,1873.51 2009.84,1859.86 2000.16,1847.22 1982.50,1815.32 1916.51,1690.88">